Version 4
SHEET 1 916 1624
WIRE 176 -272 -16 -272
WIRE 384 -272 272 -272
WIRE -144 -256 -208 -256
WIRE -16 -256 -16 -272
WIRE -16 -256 -64 -256
WIRE -208 -112 -208 -256
WIRE -160 -112 -208 -112
WIRE -16 -112 -16 -256
WIRE -16 -112 -64 -112
WIRE 80 -112 -16 -112
WIRE 80 -96 80 -112
WIRE 192 -96 192 -224
WIRE 192 -96 144 -96
WIRE -336 -16 -560 -16
WIRE -208 -16 -208 -112
WIRE -208 -16 -336 -16
WIRE -80 -16 -80 -64
WIRE 192 -16 192 -96
WIRE 192 -16 -80 -16
WIRE 256 -16 192 -16
WIRE 384 32 384 -272
WIRE 512 32 384 32
WIRE 912 32 512 32
WIRE 80 48 80 -96
WIRE 128 48 80 48
WIRE -560 64 -560 -16
WIRE -208 80 -208 -16
WIRE 0 80 -208 80
WIRE -128 96 -224 96
WIRE 0 96 0 80
WIRE 128 96 128 48
WIRE 256 96 256 -16
WIRE 384 96 384 32
WIRE -128 128 -128 96
WIRE -336 144 -336 -16
WIRE -560 176 -560 144
WIRE -224 192 -224 176
WIRE -176 224 -224 224
WIRE -128 224 -128 208
WIRE -48 224 -128 224
WIRE -336 240 -336 208
WIRE -176 240 -176 224
WIRE -176 304 -176 288
WIRE -176 304 -224 304
WIRE -128 320 -128 304
WIRE 512 320 512 32
WIRE -336 384 -336 304
WIRE 192 384 192 352
WIRE 192 384 -336 384
WIRE 512 384 192 384
WIRE 192 400 192 384
WIRE 192 512 192 480
WIRE -144 800 -336 800
WIRE 64 800 -48 800
WIRE -464 816 -528 816
WIRE -336 816 -336 800
WIRE -336 816 -384 816
WIRE -528 960 -528 816
WIRE -480 960 -528 960
WIRE -336 960 -336 816
WIRE -336 960 -384 960
WIRE -240 960 -336 960
WIRE -240 976 -240 960
WIRE -128 976 -128 848
WIRE -128 976 -176 976
WIRE -656 1056 -880 1056
WIRE -528 1056 -528 960
WIRE -528 1056 -656 1056
WIRE -400 1056 -400 1008
WIRE -128 1056 -128 976
WIRE -128 1056 -400 1056
WIRE -64 1056 -128 1056
WIRE -400 1104 -464 1104
WIRE 64 1104 64 800
WIRE 192 1104 64 1104
WIRE 912 1104 912 32
WIRE 912 1104 192 1104
WIRE -240 1120 -240 976
WIRE -192 1120 -240 1120
WIRE -880 1136 -880 1056
WIRE -528 1152 -528 1056
WIRE -320 1152 -528 1152
WIRE -464 1168 -464 1104
WIRE -320 1168 -320 1152
WIRE -192 1168 -192 1120
WIRE -64 1168 -64 1056
WIRE 64 1168 64 1104
WIRE -512 1184 -576 1184
WIRE -400 1200 -400 1184
WIRE -656 1216 -656 1056
WIRE -880 1248 -880 1216
WIRE -464 1280 -464 1248
WIRE -400 1280 -464 1280
WIRE -512 1296 -512 1184
WIRE -400 1296 -400 1280
WIRE -368 1296 -400 1296
WIRE -656 1312 -656 1280
WIRE -576 1344 -576 1264
WIRE -544 1344 -576 1344
WIRE -512 1344 -544 1344
WIRE -544 1360 -544 1344
WIRE -464 1376 -464 1360
WIRE 192 1392 192 1104
WIRE -656 1456 -656 1376
WIRE -128 1456 -128 1424
WIRE -128 1456 -656 1456
WIRE 192 1456 -128 1456
WIRE -128 1472 -128 1456
WIRE -128 1584 -128 1552
FLAG 192 512 0
FLAG -560 176 0
FLAG -128 1584 0
FLAG -880 1248 0
FLAG -464 1376 0
FLAG -544 1360 0
FLAG -400 1200 0
FLAG -128 320 0
FLAG -224 192 0
SYMBOL SpecialFunctions\\LTC4359 192 224 R0
SYMATTR InstName U1
SYMBOL voltage -560 48 R0
WINDOW 123 0 0 Left 0
WINDOW 39 0 0 Left 0
SYMATTR InstName V1
SYMATTR Value 24
SYMBOL cap 496 320 R0
SYMATTR InstName C1
SYMATTR Value 1.5µ
SYMBOL res 176 384 R0
SYMATTR InstName R1
SYMATTR Value 1k
SYMBOL res -48 -272 R90
WINDOW 0 0 56 VBottom 2
WINDOW 3 32 56 VTop 2
SYMATTR InstName R2
SYMATTR Value 100k
SYMBOL nmos -160 -64 R270
SYMATTR InstName M1
SYMATTR Value AONS66612
SYMBOL nmos 272 -224 M270
SYMATTR InstName M2
SYMATTR Value BSZ100N06LS3
SYMBOL zener -352 240 R0
SYMATTR InstName D1
SYMATTR Value TFZ24B
SYMBOL schottky -320 208 R180
WINDOW 0 24 64 Left 2
WINDOW 3 24 0 Left 2
SYMATTR InstName D2
SYMATTR Value RBR20BM60A
SYMATTR Description Zener Diode
SYMATTR Type zener
SYMBOL zener 80 -80 R270
WINDOW 0 36 32 VTop 2
WINDOW 3 -4 32 VBottom 2
SYMATTR InstName D3
SYMATTR Value BZX84C12VL
SYMBOL SpecialFunctions\\LTC4359 -128 1296 R0
SYMATTR InstName U2
SYMBOL voltage -880 1120 R0
WINDOW 3 24 44 Left 2
WINDOW 123 0 0 Left 0
WINDOW 39 0 0 Left 0
SYMATTR InstName V2
SYMATTR Value 24
SYMBOL cap 176 1392 R0
SYMATTR InstName C2
SYMATTR Value 1.5µ
SYMBOL res -144 1456 R0
SYMATTR InstName R3
SYMATTR Value 1k
SYMBOL res -368 800 R90
WINDOW 0 0 56 VBottom 2
WINDOW 3 32 56 VTop 2
SYMATTR InstName R4
SYMATTR Value 100k
SYMBOL nmos -480 1008 R270
SYMATTR InstName M3
SYMATTR Value AONS66612
SYMBOL nmos -48 848 M270
SYMATTR InstName M4
SYMATTR Value BSZ100N06LS3
SYMBOL zener -672 1312 R0
SYMATTR InstName D4
SYMATTR Value TFZ24B
SYMBOL schottky -640 1280 R180
WINDOW 0 24 64 Left 2
WINDOW 3 24 0 Left 2
SYMATTR InstName D5
SYMATTR Value RBR20BM60A
SYMATTR Description Zener Diode
SYMATTR Type zener
SYMBOL zener -240 992 R270
WINDOW 0 36 32 VTop 2
WINDOW 3 -4 32 VBottom 2
SYMATTR InstName D6
SYMATTR Value BZX84C12VL
SYMBOL voltage -576 1168 R0
WINDOW 123 0 0 Left 0
WINDOW 39 0 0 Left 0
SYMATTR InstName V3
SYMATTR Value PULSE(5 0 0 .5m .5m 1m)
SYMBOL sw -464 1376 M180
SYMATTR InstName SW
SYMBOL sw -128 320 M180
SYMATTR InstName S1
SYMBOL res -480 1152 R0
SYMATTR InstName R5
SYMATTR Value 10k
SYMBOL voltage -400 1088 R0
WINDOW 123 0 0 Left 0
WINDOW 39 0 0 Left 0
SYMATTR InstName V4
SYMATTR Value 5
SYMBOL voltage -224 208 R0
WINDOW 123 0 0 Left 0
WINDOW 39 0 0 Left 0
SYMATTR InstName V5
SYMATTR Value PULSE(0 5 0 .5m .5m 1m)
SYMBOL voltage -224 80 R0
WINDOW 123 0 0 Left 0
WINDOW 39 0 0 Left 0
SYMATTR InstName V6
SYMATTR Value 5
SYMBOL res -144 112 R0
SYMATTR InstName R6
SYMATTR Value 10k
TEXT -1000 1368 Left 2 !.tran 5m
TEXT -904 1528 Left 2 !.model SW SW(Ron=1 Roff=1Meg Vt=.5 Vh=-.4)
