Version 4
SHEET 1 880 680
WIRE 32 -96 -96 -96
WIRE -96 -80 -96 -96
WIRE -96 48 -96 0
WIRE -96 48 -576 48
WIRE 32 64 32 -96
WIRE 32 64 -32 64
WIRE 64 64 32 64
WIRE -192 80 -560 80
WIRE -96 96 -96 48
WIRE 64 128 64 64
WIRE -672 160 -832 160
WIRE -512 160 -672 160
WIRE -832 176 -832 160
WIRE -672 176 -672 160
WIRE -560 192 -560 80
WIRE -512 192 -560 192
WIRE -96 192 -96 176
WIRE -512 224 -560 224
WIRE 64 224 64 208
WIRE -576 256 -576 48
WIRE -512 256 -576 256
WIRE -560 288 -560 224
WIRE -512 288 -560 288
WIRE -832 320 -832 256
WIRE -672 320 -672 240
WIRE -672 320 -832 320
WIRE -560 320 -560 288
WIRE -560 320 -672 320
WIRE -512 320 -560 320
WIRE -192 320 -192 80
WIRE -160 320 -192 320
WIRE -32 320 -32 64
WIRE -32 320 -80 320
WIRE -560 352 -560 320
WIRE -512 352 -560 352
WIRE -192 368 -192 320
WIRE -32 368 -32 320
WIRE -560 400 -560 352
WIRE -192 448 -192 432
WIRE -32 448 -32 432
FLAG -192 448 0
FLAG -32 448 0
FLAG -560 400 0
FLAG 64 224 0
FLAG -96 192 0
SYMBOL AutoGenerated\\LM2575_TRANS -400 272 R0
SYMATTR InstName U2
SYMBOL ind -64 304 R90
WINDOW 0 5 56 VBottom 2
WINDOW 3 32 56 VTop 2
SYMATTR InstName L1
SYMATTR Value 330µ
SYMBOL polcap -688 176 R0
SYMATTR InstName C3
SYMATTR Value 100µ
SYMBOL polcap -48 368 R0
SYMATTR InstName C1
SYMATTR Value 330µ
SYMBOL schottky -176 432 R180
WINDOW 0 24 64 Left 2
WINDOW 3 24 0 Left 2
SYMATTR InstName D1
SYMATTR Value BAT54
SYMBOL voltage -832 160 R0
WINDOW 123 0 0 Left 0
WINDOW 39 0 0 Left 0
SYMATTR InstName V1
SYMATTR Value 24
SYMBOL res 48 112 R0
SYMATTR InstName R1
SYMATTR Value 100
SYMBOL res -112 -96 R0
SYMATTR InstName R2
SYMATTR Value 1.7k
SYMBOL res -112 80 R0
SYMATTR InstName R3
SYMATTR Value 1k
TEXT -784 432 Left 2 !.tran 10ms
