Version 4
SHEET 1 1708 1108
WIRE -48 -128 -64 -128
WIRE 64 -128 32 -128
WIRE -64 -16 -64 -128
WIRE -64 -16 -288 -16
WIRE 64 -16 64 -128
WIRE 64 -16 32 -16
WIRE 176 -16 64 -16
WIRE 320 -16 272 -16
WIRE 416 -16 320 -16
WIRE 512 -16 416 -16
WIRE -288 0 -288 -16
WIRE 64 0 64 -16
WIRE 96 0 96 -64
WIRE 96 0 64 0
WIRE 160 16 160 -64
WIRE 176 16 160 16
WIRE 80 32 16 32
WIRE 176 32 176 16
WIRE 176 32 160 32
WIRE 192 32 176 32
WIRE -64 48 -64 -16
WIRE 64 48 64 0
WIRE 192 48 192 32
WIRE 320 48 320 -16
WIRE -288 96 -288 80
WIRE 416 112 416 -16
WIRE -112 176 -160 176
WIRE 128 320 128 304
WIRE 416 320 416 176
WIRE 416 320 128 320
WIRE 512 336 512 -16
WIRE 544 336 512 336
WIRE 720 336 544 336
WIRE 928 336 720 336
WIRE 544 352 544 336
WIRE 720 352 720 336
WIRE 928 352 928 336
WIRE 128 432 128 320
WIRE 544 448 544 416
WIRE 720 448 720 416
WIRE 928 448 928 432
WIRE -64 528 -80 528
WIRE 48 528 16 528
WIRE -80 640 -80 528
WIRE -80 640 -304 640
WIRE 48 640 48 528
WIRE 48 640 16 640
WIRE 160 640 48 640
WIRE 304 640 256 640
WIRE 400 640 304 640
WIRE 512 640 512 336
WIRE 512 640 400 640
WIRE -304 656 -304 640
WIRE 48 656 48 640
WIRE 80 656 80 592
WIRE 80 656 48 656
WIRE 32 688 0 688
WIRE 144 688 144 592
WIRE 144 688 112 688
WIRE 176 688 144 688
WIRE -80 704 -80 640
WIRE 48 704 48 656
WIRE 176 704 176 688
WIRE 304 704 304 640
WIRE -304 752 -304 736
WIRE 400 768 400 640
WIRE -128 832 -176 832
WIRE 112 976 112 960
WIRE 400 976 400 832
WIRE 400 976 112 976
WIRE 112 1088 112 976
FLAG 128 432 0
FLAG 928 448 0
FLAG -288 96 0
FLAG 112 1088 0
FLAG -304 752 0
FLAG -160 256 0
FLAG -176 912 0
FLAG 720 448 0
FLAG 544 448 0
SYMBOL nmos 272 32 M270
WINDOW 0 79 48 VTop 2
WINDOW 3 52 48 VTop 2
SYMATTR InstName Q1
SYMATTR Value BSC060N10NS3
SYMBOL voltage -288 -16 R0
WINDOW 123 24 138 Left 2
WINDOW 39 24 117 Left 2
SYMATTR Value 24
SYMATTR InstName V1
SYMBOL cap 400 112 R0
SYMATTR InstName C1
SYMATTR Value 15µ
SYMATTR SpiceLine Rser=0.002
SYMBOL res 912 336 R0
SYMATTR InstName Rload
SYMATTR Value 24
SYMBOL LTC4359 128 176 R0
SYMATTR InstName U1
SYMBOL nmos -64 32 R270
WINDOW 0 79 48 VTop 2
WINDOW 3 52 48 VTop 2
SYMATTR InstName Q2
SYMATTR Value BSC060N10NS3
SYMBOL res 48 -144 R90
WINDOW 0 0 56 VBottom 2
WINDOW 3 32 56 VTop 2
SYMATTR InstName R2
SYMATTR Value 100k
SYMBOL nmos 256 688 M270
WINDOW 0 79 48 VTop 2
WINDOW 3 52 48 VTop 2
SYMATTR InstName Q3
SYMATTR Value BSC060N10NS3
SYMBOL voltage -304 640 R0
WINDOW 123 24 138 Left 2
WINDOW 39 24 117 Left 2
SYMATTR Value 24
SYMATTR InstName V2
SYMBOL cap 384 768 R0
SYMATTR InstName C3
SYMATTR Value 15µ
SYMATTR SpiceLine Rser=0.002
SYMBOL LTC4359 112 832 R0
SYMATTR InstName U2
SYMBOL nmos -80 688 R270
WINDOW 0 79 48 VTop 2
WINDOW 3 52 48 VTop 2
SYMATTR InstName Q4
SYMATTR Value BSC060N10NS3
SYMBOL res 32 512 R90
WINDOW 0 0 56 VBottom 2
WINDOW 3 32 56 VTop 2
SYMATTR InstName R4
SYMATTR Value 100k
SYMBOL voltage -160 160 R0
WINDOW 123 0 0 Left 0
WINDOW 39 0 0 Left 0
SYMATTR InstName V3
SYMATTR Value PWL(0 5 5m 5 5.01m 0)
SYMBOL voltage -176 816 R0
WINDOW 123 0 0 Left 0
WINDOW 39 0 0 Left 0
SYMATTR InstName V4
SYMATTR Value PWL(0 0 5m 0 5.01m 5 10m 5)
SYMBOL res 176 16 R90
WINDOW 0 0 56 VBottom 2
WINDOW 3 32 56 VTop 2
SYMATTR InstName R1
SYMATTR Value 10k
SYMBOL res 128 672 R90
WINDOW 0 0 56 VBottom 2
WINDOW 3 32 56 VTop 2
SYMATTR InstName R3
SYMATTR Value 10k
SYMBOL zener 96 -48 R270
WINDOW 0 36 32 VTop 2
WINDOW 3 -4 32 VBottom 2
SYMATTR InstName D3
SYMATTR Value BZX84C12VL
SYMATTR Description Diode
SYMATTR Type diode
SYMBOL zener 80 608 R270
WINDOW 0 36 32 VTop 2
WINDOW 3 -4 32 VBottom 2
SYMATTR InstName D4
SYMATTR Value BZX84C12VL
SYMATTR Description Diode
SYMATTR Type diode
SYMBOL polcap 528 352 R0
WINDOW 3 24 56 Left 2
SYMATTR Value 470µ
SYMATTR InstName C6
SYMATTR SpiceLine V=450 Irms=1.85 Rser=0.085 Lser=9.61067n mfg="Würth Elektronik" pn="861141486024 WCAP-AI3H 35x50" type="Al electrolytic"
SYMATTR Description Capacitor
SYMATTR Type cap
SYMBOL polcap 704 352 R0
WINDOW 3 24 56 Left 2
SYMATTR Value 470µ
SYMATTR InstName C2
SYMATTR SpiceLine V=450 Irms=1.85 Rser=0.085 Lser=9.61067n mfg="Würth Elektronik" pn="861141486024 WCAP-AI3H 35x50" type="Al electrolytic"
SYMATTR Description Capacitor
SYMATTR Type cap
TEXT 304 352 Left 2 !.tran 20m
