Version 4
SHEET 1 1532 884
WIRE 560 0 464 0
WIRE 704 0 624 0
WIRE 288 96 96 96
WIRE 336 96 288 96
WIRE 464 96 464 0
WIRE 464 96 416 96
WIRE 560 96 464 96
WIRE 704 96 704 0
WIRE 704 96 624 96
WIRE 768 96 704 96
WIRE 896 96 832 96
WIRE 960 96 896 96
WIRE 1024 96 960 96
WIRE 1072 96 1024 96
WIRE 1120 96 1072 96
WIRE 1184 96 1120 96
WIRE 1200 96 1184 96
WIRE 1184 112 1184 96
WIRE 1200 112 1184 112
WIRE 464 128 464 96
WIRE 704 128 704 96
WIRE 96 144 96 96
WIRE 960 144 960 96
WIRE 1024 144 1024 96
WIRE 1072 144 1072 96
WIRE 1120 144 1120 96
WIRE 1200 144 1200 112
WIRE 416 208 400 208
WIRE 624 224 464 224
WIRE 400 240 400 208
WIRE 592 240 400 240
WIRE 96 272 96 224
WIRE 400 272 96 272
WIRE 704 272 704 208
WIRE 704 272 400 272
WIRE 960 272 960 208
WIRE 960 272 704 272
WIRE 1024 272 1024 208
WIRE 1024 272 960 272
WIRE 1072 272 1072 208
WIRE 1072 272 1024 272
WIRE 1120 272 1120 208
WIRE 1120 272 1072 272
WIRE 1200 272 1200 224
WIRE 1200 272 1120 272
WIRE 400 304 400 272
WIRE 16 336 -16 336
WIRE 128 336 96 336
WIRE 160 336 128 336
WIRE 288 336 288 96
WIRE 288 336 240 336
WIRE 416 336 288 336
WIRE 416 352 416 336
WIRE -16 368 -16 336
WIRE 128 416 128 336
WIRE 256 416 128 416
WIRE 704 416 576 416
WIRE 896 464 896 96
WIRE 256 512 224 512
WIRE 592 512 592 240
WIRE 592 512 576 512
WIRE 160 544 160 512
WIRE 624 544 624 224
WIRE 624 544 592 544
WIRE 624 560 624 544
WIRE 896 576 896 544
WIRE 896 576 864 576
WIRE 896 592 896 576
WIRE 256 608 -48 608
WIRE 592 608 592 544
WIRE 592 608 576 608
WIRE -48 624 -48 608
WIRE 256 704 176 704
WIRE 864 704 864 576
WIRE 864 704 576 704
WIRE 176 864 176 848
FLAG 1200 96 Vout
IOPIN 1200 96 Out
FLAG 400 304 0
FLAG 896 672 0
FLAG 624 640 0
FLAG 704 480 0
FLAG 416 768 0
FLAG -48 704 0
FLAG 160 544 0
FLAG 176 864 0
FLAG -16 368 0
SYMBOL voltage 96 128 R0
WINDOW 123 0 0 Left 0
WINDOW 39 24 124 Left 2
SYMATTR InstName V1
SYMATTR Value 18
SYMBOL ind2 432 80 R90
WINDOW 0 4 56 VBottom 2
WINDOW 3 32 56 VTop 2
SYMATTR InstName L1
SYMATTR Value 28µ
SYMATTR Type ind
SYMATTR SpiceLine Rser=48m
SYMBOL ind2 688 112 R0
SYMATTR InstName L2
SYMATTR Value 28µ
SYMATTR Type ind
SYMATTR SpiceLine Rser=48m
SYMBOL cap 560 80 M90
WINDOW 0 0 32 VBottom 2
WINDOW 3 32 32 VTop 2
SYMATTR InstName C5
SYMATTR Value 10µ
SYMATTR SpiceLine V=25 Irms=18.5 Rser=0.00262245 Lser=0 mfg="KEMET" pn="C1210C106K3RAC" type="X7R"
SYMBOL schottky 768 112 R270
WINDOW 0 32 32 VTop 2
WINDOW 3 -9 41 VBottom 2
SYMATTR InstName D2
SYMATTR Value RB218T-60
SYMBOL polcap 944 144 R0
WINDOW 3 24 56 Left 2
SYMATTR Value 22µ
SYMATTR InstName C6
SYMATTR SpiceLine V=35 Irms=65m Rser=2.3 Lser=0 mfg="Nichicon" pn="UPR1V220MAH" type="Al electrolytic"
SYMATTR Description Capacitor
SYMATTR Type cap
SYMBOL cap 1056 144 R0
SYMATTR InstName C8
SYMATTR Value 10µ
SYMATTR SpiceLine V=35 Irms=8.06 Rser=0.00577565 Lser=0 mfg="KEMET" pn="C1210C106K6PAC" type="X5R"
SYMBOL res 880 448 R0
SYMATTR InstName R1
SYMATTR Value 200k
SYMBOL res 880 576 R0
SYMATTR InstName R2
SYMATTR Value 14.3k
SYMBOL res 608 544 R0
SYMATTR InstName R3
SYMATTR Value 14m
SYMATTR SpiceLine pwr=1
SYMBOL cap 688 416 R0
SYMATTR InstName C10
SYMATTR Value 4.7µ
SYMATTR SpiceLine V=4 Irms=9.29 Rser=0.00646575 Lser=0 mfg="KEMET" pn="C0603C475K7PAC" type="X5R"
SYMBOL res -64 608 R0
SYMATTR InstName R4
SYMATTR Value 41.2k
SYMBOL cap 224 496 R90
WINDOW 0 0 32 VBottom 2
WINDOW 3 32 32 VTop 2
SYMATTR InstName C11
SYMATTR Value 6.8n
SYMBOL res 160 688 R0
SYMATTR InstName R5
SYMATTR Value 10k
SYMBOL cap 160 784 R0
SYMATTR InstName C12
SYMATTR Value 22n
SYMBOL nmos 416 128 R0
SYMATTR InstName M1
SYMATTR Value FDS5670
SYMBOL res 256 320 R90
WINDOW 0 0 56 VBottom 2
WINDOW 3 32 56 VTop 2
SYMATTR InstName R7
SYMATTR Value 158k
SYMBOL res 112 320 R90
WINDOW 0 0 56 VBottom 2
WINDOW 3 32 56 VTop 2
SYMATTR InstName R8
SYMATTR Value 20k
SYMBOL res 1184 128 R0
SYMATTR InstName R6
SYMATTR Value 14
SYMBOL cap 560 -16 M90
WINDOW 0 0 32 VBottom 2
WINDOW 3 32 32 VTop 2
SYMATTR InstName C1
SYMATTR Value 10µ
SYMATTR SpiceLine V=25 Irms=18.5 Rser=0.00262245 Lser=0 mfg="KEMET" pn="C1210C106K3RAC" type="X7R"
SYMBOL polcap 1008 144 R0
WINDOW 3 24 56 Left 2
SYMATTR Value 22µ
SYMATTR InstName C2
SYMATTR SpiceLine V=35 Irms=65m Rser=2.3 Lser=0 mfg="Nichicon" pn="UPR1V220MAH" type="Al electrolytic"
SYMATTR Description Capacitor
SYMATTR Type cap
SYMBOL cap 1104 144 R0
SYMATTR InstName C3
SYMATTR Value 10µ
SYMATTR SpiceLine V=35 Irms=8.06 Rser=0.000077565 Lser=0
SYMBOL PowerProducts\\LT3757A 416 560 R0
SYMATTR InstName U2
TEXT 984 368 Left 2 !.tran 5m
TEXT 664 808 Left 2 !K1 L1 L2 1
