Version 4
SHEET 1 1368 1224
WIRE 480 -256 256 -256
WIRE 688 -256 480 -256
WIRE 864 -256 688 -256
WIRE 256 -224 256 -256
WIRE 256 -128 256 -144
WIRE 480 -128 480 -256
WIRE 864 -112 864 -256
WIRE 688 -80 688 -256
WIRE 688 -80 640 -80
WIRE 816 -32 736 -32
WIRE 736 16 736 -32
WIRE 736 16 640 16
WIRE 112 112 0 112
WIRE 272 112 192 112
WIRE 320 112 272 112
WIRE 688 112 688 -80
WIRE 688 112 640 112
WIRE 864 192 864 -16
WIRE 272 208 272 112
WIRE 320 208 272 208
WIRE 816 208 640 208
WIRE 864 464 864 288
WIRE 912 464 864 464
WIRE 992 464 912 464
WIRE 1104 464 992 464
WIRE 1200 464 1104 464
WIRE 1312 464 1200 464
WIRE 912 512 912 464
WIRE 992 512 992 464
WIRE 1104 512 1104 464
WIRE 1200 512 1200 464
WIRE 1312 512 1312 464
WIRE 912 640 912 576
WIRE 992 640 992 576
WIRE 1104 640 1104 576
WIRE 1200 640 1200 576
WIRE 1312 640 1312 592
WIRE 864 672 864 464
WIRE 112 752 0 752
WIRE 272 752 192 752
WIRE 320 752 272 752
WIRE 816 752 640 752
WIRE 272 848 272 752
WIRE 320 848 272 848
WIRE 688 848 640 848
WIRE 736 944 640 944
WIRE 864 976 864 768
WIRE 736 992 736 944
WIRE 816 992 736 992
WIRE 688 1040 688 848
WIRE 688 1040 640 1040
WIRE 256 1104 256 1088
WIRE 256 1216 256 1184
WIRE 480 1216 480 1088
WIRE 480 1216 256 1216
WIRE 688 1216 688 1040
WIRE 688 1216 480 1216
WIRE 864 1216 864 1072
WIRE 864 1216 688 1216
FLAG 256 -128 0
FLAG 480 256 0
FLAG 256 -80 0
FLAG 256 16 0
FLAG 0 112 0
FLAG 256 1088 0
FLAG 480 704 0
FLAG 256 1040 0
FLAG 256 944 0
FLAG 0 752 0
FLAG 1312 640 0
FLAG 992 640 0
FLAG 912 640 0
FLAG 1104 640 0
FLAG 1200 640 0
SYMBOL PowerProducts\\LT1161 480 64 R0
SYMATTR InstName U1
SYMBOL voltage 256 -240 R0
WINDOW 123 0 0 Left 0
WINDOW 39 0 0 Left 0
SYMATTR InstName V2
SYMATTR Value 24
SYMBOL cap 320 -96 R90
WINDOW 0 0 32 VBottom 2
WINDOW 3 32 32 VTop 2
SYMATTR InstName C1
SYMATTR Value 1µ
SYMBOL cap 320 0 R90
WINDOW 0 0 32 VBottom 2
WINDOW 3 32 32 VTop 2
SYMATTR InstName C2
SYMATTR Value 1µ
SYMBOL nmos 816 -112 R0
SYMATTR InstName M1
SYMATTR Value BSC060N10NS3
SYMBOL nmos 816 288 M180
SYMATTR InstName M2
SYMATTR Value BSC060N10NS3
SYMBOL voltage 208 112 R90
WINDOW 0 -32 56 VBottom 2
WINDOW 3 32 56 VTop 2
WINDOW 123 0 0 Left 0
WINDOW 39 0 0 Left 0
SYMATTR InstName V1
SYMATTR Value PWL(0 0 5m 0 5.01m 0 9.99m 0 10m 5)
SYMBOL PowerProducts\\LT1161 480 896 M180
SYMATTR InstName U2
SYMBOL voltage 256 1200 M180
WINDOW 123 0 0 Left 0
WINDOW 39 0 0 Left 0
SYMATTR InstName V4
SYMATTR Value 24
SYMBOL cap 320 1056 M270
WINDOW 0 32 32 VTop 2
WINDOW 3 0 32 VBottom 2
SYMATTR InstName C3
SYMATTR Value 1µ
SYMBOL cap 320 960 M270
WINDOW 0 32 32 VTop 2
WINDOW 3 0 32 VBottom 2
SYMATTR InstName C4
SYMATTR Value 1µ
SYMBOL nmos 816 1072 M180
SYMATTR InstName M3
SYMATTR Value BSC060N10NS3
SYMBOL nmos 816 672 R0
SYMATTR InstName M4
SYMATTR Value BSC060N10NS3
SYMBOL voltage 208 752 M270
WINDOW 0 -32 56 VBottom 2
WINDOW 3 32 56 VTop 2
WINDOW 123 0 0 Left 0
WINDOW 39 0 0 Left 0
SYMATTR InstName V6
SYMATTR Value PWL(0 0 4.99m 0 5m 5 9.99m 5 10m 0)
SYMBOL res 1296 496 R0
SYMATTR InstName R1
SYMATTR Value 15
SYMBOL polcap 976 512 R0
WINDOW 3 24 56 Left 2
SYMATTR InstName C5
SYMATTR Value 330µ
SYMATTR Description Capacitor
SYMATTR Type cap
SYMATTR SpiceLine V=35 Irms=1.06 Rser=0.06 Lser=0 mfg="Nichicon" pn="UPL1V331MPH" type="Al electrolytic"
SYMBOL cap 1088 512 R0
SYMATTR InstName C7
SYMATTR Value 10µ
SYMATTR SpiceLine V=35 Irms=0 Rser=0 Lser=0 mfg="Murata" pn="GRM21BR6YA106KE43" type="X5R"
SYMBOL cap 1184 512 R0
SYMATTR InstName C8
SYMATTR Value 10µ
SYMATTR SpiceLine V=35 Irms=0 Rser=0 Lser=0 mfg="Murata" pn="GRM21BR6YA106KE43" type="X5R"
SYMBOL polcap 896 512 R0
WINDOW 3 24 56 Left 2
SYMATTR InstName C6
SYMATTR Value 330µ
SYMATTR Description Capacitor
SYMATTR Type cap
SYMATTR SpiceLine V=35 Irms=1.06 Rser=0.06 Lser=0 mfg="Nichicon" pn="UPL1V331MPH" type="Al electrolytic"
TEXT 530 274 Left 2 !.tran 15m
